Circuit: * Z:\Users\maximilian.wagenbach\Repos\Downsampler\LTSpice\Sample_Hold.asc

Direct Newton iteration failed to find .op point.  (Use ".option noopiter" to skip.)
Starting Gmin stepping
Gmin = 10
Gmin = 1.07374
vernier = 0.5
vernier = 0.25
vernier = 0.125
vernier = 0.0625
Gmin = 1.08884
vernier = 0.03125
vernier = 0.015625
Gmin = 1.03122
vernier = 0.0078125
vernier = 0.0104167
vernier = 0.00520833
Gmin = 1.01988
vernier = 0.00260417
vernier = 0.00347222
Gmin = 1.01305
vernier = 0.00173611
vernier = 0.00231481
vernier = 0.00115741
Gmin = 1.01085
vernier = 0.00154321
vernier = 0.000771604
Gmin = 1.00871
vernier = 0.00102881
vernier = 0.000514403
Gmin = 1.00715
vernier = 0.00068587
vernier = 0.000514403
Gmin = 1.0059
vernier = 0.00068587
vernier = 0.000514402
Gmin = 0
Gmin stepping failed

Starting source stepping with srcstepmethod=0
Source Step = 3.0303%
Source Step = 33.3333%
Source Step = 63.6364%
Source Step = 93.9394%
Source stepping succeeded in finding the operating point.


Date: Tue Apr 24 12:36:21 2018
Total elapsed time: 17.563 seconds.

tnom = 27
temp = 27
method = modified trap
totiter = 249342
traniter = 242884
tranpoints = 59603
accept = 44165
rejected = 15438
matrix size = 41
fillins = 32
solver = Normal
Thread vector: 52.9/18.7[2] 4.5/18.3[1] 2.9/31.6[1] 0.8/43.3[1]  2592/500
Matrix Compiler1: 2.92 KB object code size  1.7/0.9/[0.7]
Matrix Compiler2: 4.02 KB object code size  1.6/4.6/[0.9]

